Version 4
SHEET 1 880 680
WIRE -432 -320 -752 -320
WIRE -432 -304 -432 -320
WIRE -432 -304 -496 -304
WIRE -384 -304 -432 -304
WIRE -752 -192 -752 -320
WIRE -384 -192 -384 -224
WIRE -288 -192 -384 -192
WIRE -176 -192 -224 -192
WIRE -160 -192 -176 -192
WIRE -576 -112 -656 -112
WIRE -496 -112 -496 -224
WIRE -496 -112 -512 -112
WIRE -432 -112 -496 -112
WIRE -656 -96 -656 -112
WIRE -496 -64 -496 -112
WIRE -384 -64 -384 -96
WIRE -176 -64 -176 -192
WIRE -656 0 -656 -16
WIRE -432 16 -496 16
WIRE -384 16 -432 16
WIRE -752 32 -752 -112
WIRE -432 32 -432 16
WIRE -432 32 -752 32
WIRE -176 32 -176 16
WIRE -176 32 -432 32
WIRE -752 48 -752 32
FLAG -752 48 0
FLAG -656 0 0
FLAG -160 -192 Vo
IOPIN -160 -192 Out
SYMBOL res -512 -320 R0
SYMATTR InstName 10k
SYMBOL res -512 -80 R0
SYMATTR InstName 5.6k
SYMBOL res -400 -320 R0
SYMATTR InstName R3
SYMBOL res -400 -80 R0
SYMATTR InstName R4
SYMBOL nmos -432 -192 R0
SYMATTR InstName M1
SYMBOL res -192 -80 R0
SYMATTR InstName RL
SYMBOL cap -512 -128 R90
WINDOW 0 0 32 VBottom 2
WINDOW 3 32 32 VTop 2
SYMATTR InstName C1
SYMBOL cap -224 -208 R90
WINDOW 0 0 32 VBottom 2
WINDOW 3 32 32 VTop 2
SYMATTR InstName C2
SYMBOL voltage -752 -208 R0
WINDOW 123 0 0 Left 0
WINDOW 39 0 0 Left 0
SYMATTR InstName Vdd
SYMATTR Value 12
SYMBOL voltage -656 -112 R0
SYMATTR InstName Vi
